<?xml version="1.0" encoding="iso-8859-1"?>
<configuration xmlns:xsi="http://www.w3.org/2001/XMLSchema-instance" xsi:noNamespaceSchemaLocation="http://sumo.sf.net/xsd/sumoConfiguration.xsd">

	<input>
		<net-file value="ramp.net.xml" />
		<route-files value="veh.rou.xml" />
	</input> 

	<time>
		<begin value="0" />
		<step-length value="0.1"/>
		<delay value="300"/> 
		<end  value="2000" />
	</time>

        <gui-settings-file value="gui-settings.cfg"/>



</configuration>
