<nodes>
<node id="0" x="-350" y="0" />
<node id="1" x="0" y="0"   />
<node id="2" x="600" y="0" />
<node id="3" x="1200" y="0" />
<!--node id="4" x="-720" y="-540"  1400/-->
<!--<node id="4" x="-1969.615506" y="-347.296355"  />-->
</nodes>


