<routes>
   <vType id="HDV" tau="3.000009899856396" lcAssertive="2.000040262082267" minGap="3.999937997647965" accel="1.7999418712105781" decel="4.500032522450052"/>
</routes>