<nodes>
<node id="0" x="0" y="0" />
<node id="1" x="100" y="0"   />
<node id="2" x="328" y="0" />
<node id="3" x="420" y="0" />
<node id="4" x="0" y="-20" />
<!--<node id="4" x="-1969.615506" y="-347.296355"  />-->
</nodes>


